LTspice 24.1.9 for Windows
Circuit: C:\Users\Francesco Gabriele\Politecnico Di Torino Studenti Dropbox\Francesco Gabriele\Buck Control\EMPC on Buck\LTSPICE\Draft1.net
Start Time: Sun Aug 17 10:58:35 2025
solver = Alternate
Maximum thread count: 8
tnom = 27
temp = 27
method = Gear
Direct Newton iteration for .op point succeeded.
Total elapsed time: 0.070 seconds.

Files loaded:
C:\Users\Francesco Gabriele\Politecnico Di Torino Studenti Dropbox\Francesco Gabriele\Buck Control\EMPC on Buck\LTSPICE\Draft1.net

