LTspice 24.1.9 for Windows
Circuit: C:\Users\Francesco Gabriele\Politecnico Di Torino Studenti Dropbox\Francesco Gabriele\Buck Control\EMPC on Buck\LTSPICE\VoltageMode.net
Start Time: Sun Aug 17 10:30:19 2025
solver = Alternate
Maximum thread count: 8
tnom = 27
temp = 27
method = Gear
C:\Users\Francesco Gabriele\Politecnico Di Torino Studenti Dropbox\Francesco Gabriele\Buck Control\EMPC on Buck\LTSPICE\VoltageMode.net(23): Limiting fall time to 3.99673e-22.

V6 N006 0 PULSE(0 {Vpk} 0 2u 0 0 2u)
^^^^^^^^^^^^^^^^^^^^^^^^^^^^^^^^^^^^
Direct Newton iteration failed to find .op point.  (Use ".option noopiter" to skip.)
Starting Gmin stepping
Gmin = 10
Gmin = 1.07374
Gmin = 0.115292
Gmin = 0.0123794
Gmin = 0.00132923
Gmin = 0.000142725
Gmin = 1.5325e-05
Gmin = 1.6455e-06
Gmin = 1.76685e-07
Gmin = 1.89714e-08
Gmin = 2.03704e-09
Gmin = 2.18725e-10
Gmin = 2.34854e-11
Gmin = 2.52173e-12
Gmin = 2.70769e-13
Gmin = 0
Gmin stepping succeeded in finding the operating point.

Total elapsed time: 57.718 seconds.

Files loaded:
C:\Users\Francesco Gabriele\Politecnico Di Torino Studenti Dropbox\Francesco Gabriele\Buck Control\EMPC on Buck\LTSPICE\VoltageMode.net
C:\Users\Francesco Gabriele\AppData\Local\LTspice\lib\cmp\standard.dio
C:\Users\Francesco Gabriele\AppData\Local\LTspice\lib\cmp\standard.mos
C:\Users\Francesco Gabriele\AppData\Local\LTspice\lib\sub\ADI.lib
C:\Users\Francesco Gabriele\AppData\Local\LTspice\lib\sub\LT1720.sub
C:\Users\Francesco Gabriele\AppData\Local\LTspice\lib\sub\LTC7060.sub

